@<TRIPOS>MOLECULE
quinone
12 12
SMALL
GASTEIGER
@<TRIPOS>ATOM
1 C 1.1200 0.7539 -2.3968 C.2 **** **** 0.1792
2 O 1.1317 0.5404 -3.6012 O.2 **** **** -0.2879
3 C 1.1113 -0.3545 -1.4213 C.2 **** **** -0.0113
4 C 1.0986 -0.1204 -0.1056 C.2 **** **** -0.0113
5 C 1.0928 1.2552 0.4296 C.2 **** **** 0.1792
6 O 1.0812 1.4688 1.6339 O.2 **** **** -0.2879
7 C 1.1014 2.3631 -0.5460 C.2 **** **** -0.0113
8 C 1.1140 2.1305 -1.8620 C.2 **** **** -0.0113
9 H 1.1158 -1.3572 -1.8301 H **** **** 0.0657
10 H 1.0921 -0.9224 0.6236 H **** **** 0.0657
11 H 1.0968 3.3668 -0.1371 H **** **** 0.0657
12 H 1.1205 2.9313 -2.5905 H **** **** 0.0657
@<TRIPOS>BOND
1 1 8 1
2 1 3 1
3 7 8 2
4 5 7 1
5 4 5 1
6 3 4 2
7 5 6 2
8 1 2 2
9 3 9 1
10 4 10 1
11 7 11 1
12 8 12 1
