@<TRIPOS>MOLECULE
quinone
12 12
SMALL
GASTEIGER
@<TRIPOS>ATOM
1 C 1.3968 -0.2461 0.1200 C.2 **** **** 0.1792
2 O 2.6012 -0.4596 0.1317 O.2 **** **** -0.2879
3 C 0.4213 -1.3545 0.1113 C.2 **** **** -0.0113
4 C -0.8944 -1.1204 0.0986 C.2 **** **** -0.0113
5 C -1.4296 0.2552 0.0928 C.2 **** **** 0.1792
6 O -2.6339 0.4688 0.0812 O.2 **** **** -0.2879
7 C -0.4540 1.3631 0.1014 C.2 **** **** -0.0113
8 C 0.8620 1.1305 0.1140 C.2 **** **** -0.0113
9 H 0.8301 -2.3572 0.1158 H **** **** 0.0657
10 H -1.6236 -1.9224 0.0921 H **** **** 0.0657
11 H -0.8629 2.3668 0.0968 H **** **** 0.0657
12 H 1.5905 1.9313 0.1205 H **** **** 0.0657
@<TRIPOS>BOND
1 1 8 1
2 1 3 1
3 7 8 2
4 5 7 1
5 4 5 1
6 3 4 2
7 5 6 2
8 1 2 2
9 3 9 1
10 4 10 1
11 7 11 1
12 8 12 1
