@<TRIPOS>MOLECULE
quinone
12 12 0 0 0
SMALL
GASTEIGER
@<TRIPOS>ATOM
1 C 1.3646385e-2 -0.2507255 -1.4131645 C.2 **** **** 0.1792
2 O 2.534633e-2 -0.4642255 -2.6175644 O.2 **** **** -0.2879
3 C 4.946429e-3 -1.3591256 -0.43766445 C.2 **** **** -0.0113
4 C -7.753513e-3 -1.1250255 0.87803555 C.2 **** **** -0.0113
5 C -1.3553491e-2 0.2505745 1.4132355 C.2 **** **** 0.1792
6 O -2.5153434e-2 0.4641745 2.6175356 O.2 **** **** -0.2879
7 C -4.953529e-3 1.3584745 0.43763554 C.2 **** **** -0.0113
8 C 7.6464107e-3 1.1258744 -0.87836444 C.2 **** **** -0.0113
9 H 9.446412e-3 -2.3618255 -0.84646446 H **** **** 0.0657
10 H -1.4253479e-2 -1.9270256 1.6072356 H **** **** 0.0657
11 H -9.553514e-3 2.3621745 0.84653556 H **** **** 0.0657
12 H 1.4146377e-2 1.9266745 -1.6068645 H **** **** 0.0657
@<TRIPOS>BOND
1 1 8 1
2 1 3 1
3 7 8 2
4 5 7 1
5 4 5 1
6 3 4 2
7 5 6 2
8 1 2 2
9 3 9 1
10 4 10 1
11 7 11 1
12 8 12 1
@<TRIPOS>MOLECULE
quinone
12 12 0 0 0
SMALL
GASTEIGER
@<TRIPOS>ATOM
1 C 1.3646483e-2 -0.25072545 -1.4131644 C.2 **** **** 0.1792
2 O 2.5346518e-2 -0.4642254 -2.6175644 O.2 **** **** -0.2879
3 C 4.9464703e-3 -1.3591254 -0.4376644 C.2 **** **** -0.0113
4 C -7.7534914e-3 -1.1250254 0.87803566 C.2 **** **** -0.0113
5 C -1.35535e-2 0.2505746 1.4132357 C.2 **** **** 0.1792
6 O -2.5153518e-2 0.4641745 2.6175356 O.2 **** **** -0.2879
7 C -4.9535036e-3 1.3584746 0.43763566 C.2 **** **** -0.0113
8 C 7.6464415e-3 1.1258746 -0.8783643 C.2 **** **** -0.0113
9 H 9.446502e-3 -2.3618255 -0.8464644 H **** **** 0.0657
10 H -1.4253497e-2 -1.9270254 1.6072357 H **** **** 0.0657
11 H -9.553552e-3 2.3621745 0.8465357 H **** **** 0.0657
12 H 1.4146447e-2 1.9266745 -1.6068645 H **** **** 0.0657
@<TRIPOS>BOND
1 1 8 1
2 1 3 1
3 7 8 2
4 5 7 1
5 4 5 1
6 3 4 2
7 5 6 2
8 1 2 2
9 3 9 1
10 4 10 1
11 7 11 1
12 8 12 1
