@<TRIPOS>MOLECULE
quinone
12 12 0 0 0
SMALL
GASTEIGER
@<TRIPOS>ATOM
1 C 1.3649939e-2 -0.25072503 -1.413175 C.2 **** **** 0.1792
2 O 2.5349883e-2 -0.46422502 -2.6175752 O.2 **** **** -0.2879
3 C 4.9499827e-3 -1.3591251 -0.437675 C.2 **** **** -0.0113
4 C -7.749959e-3 -1.125025 0.878025 C.2 **** **** -0.0113
5 C -1.3549937e-2 0.25057498 1.413225 C.2 **** **** 0.1792
6 O -2.514988e-2 0.464175 2.6175249 O.2 **** **** -0.2879
7 C -4.9499753e-3 1.358475 0.437625 C.2 **** **** -0.0113
8 C 7.6499647e-3 1.1258749 -0.878375 C.2 **** **** -0.0113
9 H 9.449966e-3 -2.361825 -0.846475 H **** **** 0.0657
10 H -1.42499255e-2 -1.9270251 1.6072251 H **** **** 0.0657
11 H -9.5499605e-3 2.362175 0.846525 H **** **** 0.0657
12 H 1.4149931e-2 1.926675 -1.606875 H **** **** 0.0657
@<TRIPOS>BOND
1 1 8 1
2 1 3 1
3 7 8 2
4 5 7 1
5 4 5 1
6 3 4 2
7 5 6 2
8 1 2 2
9 3 9 1
10 4 10 1
11 7 11 1
12 8 12 1
@<TRIPOS>MOLECULE
quinone
12 12 0 0 0
SMALL
GASTEIGER
@<TRIPOS>ATOM
1 C 1.36499405e-2 -0.2507251 -1.4131751 C.2 **** **** 0.1792
2 O 2.5349975e-2 -0.46422505 -2.6175752 O.2 **** **** -0.2879
3 C 4.9499273e-3 -1.3591251 -0.43767506 C.2 **** **** -0.0113
4 C -7.7500343e-3 -1.125025 0.878025 C.2 **** **** -0.0113
5 C -1.3550043e-2 0.25057495 1.4132249 C.2 **** **** 0.1792
6 O -2.515006e-2 0.46417487 2.617525 O.2 **** **** -0.2879
7 C -4.9500465e-3 1.358475 0.437625 C.2 **** **** -0.0113
8 C 7.6498985e-3 1.125875 -0.878375 C.2 **** **** -0.0113
9 H 9.449959e-3 -2.361825 -0.84647506 H **** **** 0.0657
10 H -1.425004e-2 -1.9270251 1.607225 H **** **** 0.0657
11 H -9.550095e-3 2.362175 0.846525 H **** **** 0.0657
12 H 1.4149904e-2 1.9266748 -1.6068752 H **** **** 0.0657
@<TRIPOS>BOND
1 1 8 1
2 1 3 1
3 7 8 2
4 5 7 1
5 4 5 1
6 3 4 2
7 5 6 2
8 1 2 2
9 3 9 1
10 4 10 1
11 7 11 1
12 8 12 1
