@<TRIPOS>MOLECULE
quinone
12 12
SMALL
GASTEIGER
@<TRIPOS>ATOM
1 C 1.4132 -0.2507 0.0137 C.2 **** **** 0.1792
2 O 2.6176 -0.4642 0.0253 O.2 **** **** -0.2879
3 C 0.4377 -1.3591 0.0050 C.2 **** **** -0.0113
4 C -0.8780 -1.1250 -0.0077 C.2 **** **** -0.0113
5 C -1.4132 0.2506 -0.0135 C.2 **** **** 0.1792
6 O -2.6175 0.4642 -0.0251 O.2 **** **** -0.2879
7 C -0.4376 1.3585 -0.0049 C.2 **** **** -0.0113
8 C 0.8784 1.1259 0.0077 C.2 **** **** -0.0113
9 H 0.8465 -2.3618 0.0095 H **** **** 0.0657
10 H -1.6072 -1.9270 -0.0142 H **** **** 0.0657
11 H -0.8465 2.3622 -0.0095 H **** **** 0.0657
12 H 1.6069 1.9267 0.0142 H **** **** 0.0657
@<TRIPOS>BOND
1 1 8 1
2 1 3 1
3 7 8 2
4 5 7 1
5 4 5 1
6 3 4 2
7 5 6 2
8 1 2 2
9 3 9 1
10 4 10 1
11 7 11 1
12 8 12 1
@<TRIPOS>MOLECULE
quinone
12 12
SMALL
GASTEIGER
@<TRIPOS>ATOM
1 C 1.4132 -0.2507 0.0137 C.2 **** **** 0.1792
2 O 2.6176 -0.4642 0.0254 O.2 **** **** -0.2879
3 C 0.4377 -1.3591 0.0050 C.2 **** **** -0.0113
4 C -0.8780 -1.1250 -0.0077 C.2 **** **** -0.0113
5 C -1.4132 0.2506 -0.0135 C.2 **** **** 0.1792
6 O -2.6175 0.4642 -0.0251 O.2 **** **** -0.2879
7 C -0.4376 1.3585 -0.0049 C.2 **** **** -0.0113
8 C 0.8784 1.1259 0.0077 C.2 **** **** -0.0113
9 H 0.8465 -2.3618 0.0095 H **** **** 0.0657
10 H -1.6072 -1.9270 -0.0142 H **** **** 0.0657
11 H -0.8465 2.3622 -0.0095 H **** **** 0.0657
12 H 1.6069 1.9267 0.0142 H **** **** 0.0657
@<TRIPOS>BOND
1 1 8 1
2 1 3 1
3 7 8 2
4 5 7 1
5 4 5 1
6 3 4 2
7 5 6 2
8 1 2 2
9 3 9 1
10 4 10 1
11 7 11 1
12 8 12 1
