@<TRIPOS>MOLECULE
*****
21 21 0 0 0
SMALL
GASTEIGER
@<TRIPOS>ATOM
1 C -1.6942846e-3 -1.8868255e-3 3.7615086e-4 C.ar 1 LIG1 0.1456
2 C 0.35079694 0.390665 -7.787953e-2 C.ar 1 LIG1 -0.0184
3 C -0.41812456 -0.4656444 9.2826776e-2 C.ar 1 LIG1 0.1010
4 C 0.29916725 0.33316758 -6.6417344e-2 C.ar 1 LIG1 -0.0582
5 C -0.46066362 -0.5130179 0.10227076 C.ar 1 LIG1 -0.0442
6 C -0.10356182 -0.1153316 2.299148e-2 C.ar 1 LIG1 -0.0608
7 C -0.81872225 -0.91177016 0.18176244 C.2 1 LIG1 0.3404
8 O -1.0054069 -1.1196715 0.22320776 O.2 1 LIG1 -0.2450
9 O -0.97348106 -1.084117 0.21612005 O.3 1 LIG1 -0.4770
10 O 5.6764286e-2 6.321552e-2 -1.26020815e-2 O.3 1 LIG1 -0.4252
11 C 0.522867 0.5822908 -0.11608039 C.2 1 LIG1 0.3092
12 O 0.86792046 0.96655947 -0.19268481 O.2 1 LIG1 -0.2507
13 C 0.5380906 0.5992444 -0.119460106 C.3 1 LIG1 0.0336
14 H 0.66853493 0.7445139 -0.14841972 H 1 LIG1 0.0654
15 H 0.57610595 0.6415804 -0.1278998 H 1 LIG1 0.0619
16 H -0.773269 -0.8611509 0.17167147 H 1 LIG1 0.0627
17 H -0.13931553 -0.15514868 3.0929057e-2 H 1 LIG1 0.0618
18 H -0.8231589 -0.916711 0.18274741 H 1 LIG1 0.2954
19 H 0.5999853 0.66817355 -0.13320118 H 1 LIG1 0.0342
20 H 0.13475254 0.15006706 -2.9916069e-2 H 1 LIG1 0.0342
21 H 0.90241265 1.0049717 -0.20034239 H 1 LIG1 0.0342
@<TRIPOS>BOND
1 1 2 ar
2 2 4 ar
3 1 3 ar
4 3 5 ar
5 5 6 ar
6 4 6 ar
7 1 10 1
8 10 11 1
9 11 13 1
10 13 21 1
11 13 20 1
12 13 19 1
13 11 12 2
14 3 7 1
15 7 9 1
16 9 18 1
17 7 8 2
18 5 16 1
19 6 17 1
20 4 15 1
21 2 14 1
@<TRIPOS>MOLECULE
*****
15 14 0 0 0
SMALL
GASTEIGER
@<TRIPOS>ATOM
1 CL -3.7721934 -1.6602867 0.24850667 Cl 1 LIG1 -0.1246
2 C -2.0004933 -1.8590868 0.29120666 C.3 1 LIG1 0.0316
3 C -1.3192935 -0.51508665 7.5706676e-2 C.3 1 LIG1 0.0072
4 S 0.49440655 -0.71268666 0.11830667 S.3 1 LIG1 -0.1584
5 C 0.9628066 1.0288134 -0.16189334 C.3 1 LIG1 0.0072
6 C 2.4782066 1.1706133 -0.17589334 C.3 1 LIG1 0.0316
7 CL 2.9303067 2.8738134 -0.44989333 Cl 1 LIG1 -0.1246
8 H -1.7360934 -2.5758867 -0.49299332 H 1 LIG1 0.0437
9 H -1.7460935 -2.2896867 1.2644067 H 1 LIG1 0.0437
10 H -1.6128935 0.1904133 0.86050665 H 1 LIG1 0.0388
11 H -1.6028935 -9.5386684e-2 -0.8949933 H 1 LIG1 0.0388
12 H 0.53080654 1.6402133 0.63770664 H 1 LIG1 0.0388
13 H 0.54070663 1.3552134 -1.1178933 H 1 LIG1 0.0388
14 H 2.9313066 0.5819133 -0.9801934 H 1 LIG1 0.0437
15 H 2.9214067 0.8671133 0.7774067 H 1 LIG1 0.0437
@<TRIPOS>BOND
1 1 2 1
2 2 3 1
3 3 4 1
4 4 5 1
5 5 6 1
6 6 7 1
7 2 8 1
8 2 9 1
9 3 10 1
10 3 11 1
11 5 12 1
12 5 13 1
13 6 14 1
14 6 15 1
