@<TRIPOS>MOLECULE
*****
 15 14 0 0 0
SMALL
GASTEIGER

@<TRIPOS>ATOM
      1 CL         -3.6263   -0.6647   -0.0559 Cl      1  LIG1       -0.1246
      2 C          -1.8546   -0.8635   -0.0132 C.3     1  LIG1        0.0316
      3 C          -1.1734    0.4805   -0.2287 C.3     1  LIG1        0.0072
      4 S           0.6403    0.2829   -0.1861 S.3     1  LIG1       -0.1584
      5 C           1.1087    2.0244   -0.4663 C.3     1  LIG1        0.0072
      6 C           2.6241    2.1662   -0.4803 C.3     1  LIG1        0.0316
      7 CL          3.0762    3.8694   -0.7543 Cl      1  LIG1       -0.1246
      8 H          -1.5902   -1.5803   -0.7974 H       1  LIG1        0.0437
      9 H          -1.6002   -1.2941    0.9600 H       1  LIG1        0.0437
     10 H          -1.4670    1.1860    0.5561 H       1  LIG1        0.0388
     11 H          -1.4570    0.9002   -1.1994 H       1  LIG1        0.0388
     12 H           0.6767    2.6358    0.3333 H       1  LIG1        0.0388
     13 H           0.6866    2.3508   -1.4223 H       1  LIG1        0.0388
     14 H           3.0772    1.5775   -1.2846 H       1  LIG1        0.0437
     15 H           3.0673    1.8627    0.4730 H       1  LIG1        0.0437
@<TRIPOS>BOND
     1     1     2    1
     2     2     3    1
     3     3     4    1
     4     4     5    1
     5     5     6    1
     6     6     7    1
     7     2     8    1
     8     2     9    1
     9     3    10    1
    10     3    11    1
    11     5    12    1
    12     5    13    1
    13     6    14    1
    14     6    15    1
